Circuit: * C:\Users\Daniel A\Documents\LTspiceXVII\Draft1.asc


Date: Fri Nov 24 09:22:55 2017
Total elapsed time: 0.020 seconds.

tnom = 27
temp = 27
method = trap
totiter = 0
traniter = 0
tranpoints = 0
accept = 0
rejected = 0
matrix size = 4
fillins = 0
solver = Normal

